<?xml version="1.0" ?>
<routes>
  <route edges="27.0.00 37.0.00 35.0.00" id="route_hard"/>
  <route edges="-36.0.00 -38.0.00" id="route_highway_rev"/>
  <route edges="-39.0.00 -0.0.00 -1.0.00 -2.0.00 -3.0.00" id="route_ew_full"/>
  <route edges="20.0.00 48.0.00 -39.0.00 25.0.00" id="route_west_entry"/>
  <route edges="-21.0.00 -41.0.00 -51.0.00 -52.0.00" id="route_north"/>
  <route edges="-6.0.00 -7.0.00 4.0.00 45.0.00 -9.0.00" id="route_south"/>
  <route edges="24.0.00 23.0.00" id="route_east"/>
  <vType accel="2.6" decel="4.5" guiShape="passenger" height="1.5" id="vehicle.dodge.charger_police_base" length="4.5" minGap="2.5" sigma="0.5" speedDev="0.1" speedFactor="normc(1.0,0.1,0.8,1.2)" tau="1.0" vClass="passenger" width="1.8"/>
  <vehicle color="245,255,255" depart="0.0" id="base_0000" route="route_north" type="vehicle.dodge.charger_police_base"/>
  <vType accel="2.6" decel="4.5" guiShape="passenger/hatchback" height="1.5" id="vehicle.mini.cooper_s_occ" length="4.0" minGap="1.5" sigma="0.8" speedDev="0.1" speedFactor="normc(0.9,0.1,0.7,1.1)" tau="1.2" vClass="passenger" width="1.8"/>
  <vehicle color="201,172,188" depart="0.0" id="occ_0000" route="route_ew_full" type="vehicle.mini.cooper_s_occ"/>
  <vType accel="2.6" decel="4.5" guiShape="passenger/hatchback" height="1.5" id="vehicle.mini.cooper_s_2021_occ" length="4.0" minGap="1.5" sigma="0.8" speedDev="0.1" speedFactor="normc(0.9,0.1,0.7,1.1)" tau="1.2" vClass="passenger" width="1.8"/>
  <vehicle color="28,48,201" depart="0.8" id="occ_0001" route="route_ew_full" type="vehicle.mini.cooper_s_2021_occ"/>
  <vType accel="2.6" decel="4.5" guiShape="passenger/van" height="1.8" id="vehicle.nissan.patrol_occ" length="5.0" minGap="1.5" sigma="0.8" speedDev="0.1" speedFactor="normc(0.9,0.1,0.7,1.1)" tau="1.2" vClass="passenger" width="2.0"/>
  <vehicle color="255,242,255" depart="1.6" id="occ_0002" route="route_ew_full" type="vehicle.nissan.patrol_occ"/>
  <vType accel="2.6" decel="4.5" guiShape="passenger/van" height="1.8" id="vehicle.jeep.wrangler_rubicon_base" length="5.0" minGap="2.5" sigma="0.5" speedDev="0.1" speedFactor="normc(1.0,0.1,0.8,1.2)" tau="1.0" vClass="passenger" width="2.0"/>
  <vehicle color="190,210,184" depart="1.8" id="base_0001" route="route_highway_rev" type="vehicle.jeep.wrangler_rubicon_base"/>
  <vType accel="2.6" decel="4.5" guiShape="passenger" height="1.5" id="vehicle.audi.tt_occ" length="4.5" minGap="1.5" sigma="0.8" speedDev="0.1" speedFactor="normc(0.9,0.1,0.7,1.1)" tau="1.2" vClass="passenger" width="1.8"/>
  <vehicle color="17,13,12" depart="2.4" id="occ_0003" route="route_ew_full" type="vehicle.audi.tt_occ"/>
  <vehicle color="55,51,49" depart="3.2" id="occ_0004" route="route_ew_full" type="vehicle.nissan.patrol_occ"/>
  <vType accel="2.6" decel="4.5" guiShape="passenger" height="1.5" id="vehicle.tesla.model3_base" length="4.5" minGap="2.5" sigma="0.5" speedDev="0.1" speedFactor="normc(1.0,0.1,0.8,1.2)" tau="1.0" vClass="passenger" width="1.8"/>
  <vehicle color="255,196,1" depart="3.5" id="base_0002" route="route_south" type="vehicle.tesla.model3_base"/>
  <vType accel="2.6" decel="4.5" guiShape="passenger/van" height="1.8" id="vehicle.audi.etron_occ" length="5.0" minGap="1.5" sigma="0.8" speedDev="0.1" speedFactor="normc(0.9,0.1,0.7,1.1)" tau="1.2" vClass="passenger" width="2.0"/>
  <vehicle color="242,255,248" depart="4.0" id="occ_0005" route="route_ew_full" type="vehicle.audi.etron_occ"/>
  <vType accel="2.6" decel="4.5" guiShape="passenger/van" height="1.8" id="vehicle.jeep.wrangler_rubicon_occ" length="5.0" minGap="1.5" sigma="0.8" speedDev="0.1" speedFactor="normc(0.9,0.1,0.7,1.1)" tau="1.2" vClass="passenger" width="2.0"/>
  <vehicle color="144,128,119" depart="4.8" id="occ_0006" route="route_ew_full" type="vehicle.jeep.wrangler_rubicon_occ"/>
  <vType accel="2.6" decel="4.5" guiShape="passenger/van" height="1.8" id="vehicle.nissan.patrol_2021_hard" length="5.0" minGap="2.5" sigma="0.5" speedDev="0.1" speedFactor="normc(1.0,0.1,0.8,1.2)" tau="1.0" vClass="passenger" width="2.0"/>
  <vehicle color="125,113,136" depart="5.0" departLane="best" departPos="base" departSpeed="max" id="H00_00" route="route_ew_full" type="vehicle.nissan.patrol_2021_hard"/>
  <vType accel="2.6" decel="4.5" guiShape="passenger" height="1.5" id="vehicle.audi.tt_base" length="4.5" minGap="2.5" sigma="0.5" speedDev="0.1" speedFactor="normc(1.0,0.1,0.8,1.2)" tau="1.0" vClass="passenger" width="1.8"/>
  <vehicle color="237,255,243" depart="5.2" id="base_0003" route="route_highway_rev" type="vehicle.audi.tt_base"/>
  <vehicle color="212,40,16" depart="5.6" id="occ_0007" route="route_ew_full" type="vehicle.audi.tt_occ"/>
  <vType accel="2.6" decel="4.5" guiShape="delivery" height="1.8" id="vehicle.volkswagen.t2_occ" length="5.0" minGap="1.5" sigma="0.8" speedDev="0.1" speedFactor="normc(0.9,0.1,0.7,1.1)" tau="1.2" vClass="passenger" width="2.0"/>
  <vehicle color="206,212,209" depart="6.4" id="occ_0008" route="route_ew_full" type="vehicle.volkswagen.t2_occ"/>
  <vehicle color="125,113,136" depart="6.5" departLane="best" departPos="base" departSpeed="max" id="H00_01" route="route_ew_full" type="vehicle.nissan.patrol_2021_hard"/>
  <vType accel="2.6" decel="4.5" guiShape="passenger/hatchback" height="1.5" id="vehicle.seat.leon_base" length="4.0" minGap="2.5" sigma="0.5" speedDev="0.1" speedFactor="normc(1.0,0.1,0.8,1.2)" tau="1.0" vClass="passenger" width="1.8"/>
  <vehicle color="202,197,186" depart="7.0" id="base_0004" route="route_west_entry" type="vehicle.seat.leon_base"/>
  <vehicle color="255,245,255" depart="7.2" id="occ_0009" route="route_ew_full" type="vehicle.mini.cooper_s_2021_occ"/>
  <vehicle color="125,113,136" depart="8.0" departLane="best" departPos="base" departSpeed="max" id="H00_02" route="route_ew_full" type="vehicle.nissan.patrol_2021_hard"/>
  <vType accel="2.6" decel="4.5" guiShape="delivery" height="1.8" id="vehicle.volkswagen.t2_2021_occ" length="5.0" minGap="1.5" sigma="0.8" speedDev="0.1" speedFactor="normc(0.9,0.1,0.7,1.1)" tau="1.2" vClass="passenger" width="2.0"/>
  <vehicle color="50,73,210" depart="8.0" id="occ_0010" route="route_ew_full" type="vehicle.volkswagen.t2_2021_occ"/>
  <vehicle color="196,199,181" depart="8.8" id="base_0005" route="route_east" type="vehicle.audi.tt_base"/>
  <vehicle color="252,244,251" depart="8.8" id="occ_0011" route="route_ew_full" type="vehicle.audi.tt_occ"/>
  <vehicle color="125,113,136" depart="9.5" departLane="best" departPos="base" departSpeed="max" id="H00_03" route="route_ew_full" type="vehicle.nissan.patrol_2021_hard"/>
  <vehicle color="237,195,19" depart="9.6" id="occ_0012" route="route_ew_full" type="vehicle.audi.tt_occ"/>
  <vType accel="2.6" decel="4.5" guiShape="passenger" height="1.5" id="vehicle.mercedes.coupe_occ" length="4.5" minGap="1.5" sigma="0.8" speedDev="0.1" speedFactor="normc(0.9,0.1,0.7,1.1)" tau="1.2" vClass="passenger" width="1.8"/>
  <vehicle color="234,255,246" depart="10.4" id="occ_0013" route="route_ew_full" type="vehicle.mercedes.coupe_occ"/>
  <vType accel="2.6" decel="4.5" guiShape="passenger/van" height="1.8" id="vehicle.audi.etron_base" length="5.0" minGap="2.5" sigma="0.5" speedDev="0.1" speedFactor="normc(1.0,0.1,0.8,1.2)" tau="1.0" vClass="passenger" width="2.0"/>
  <vehicle color="255,255,255" depart="10.5" id="base_0006" route="route_north" type="vehicle.audi.etron_base"/>
  <vehicle color="125,113,136" depart="11.0" departLane="best" departPos="base" departSpeed="max" id="H00_04" route="route_ew_full" type="vehicle.nissan.patrol_2021_hard"/>
  <vehicle color="125,126,142" depart="11.2" id="occ_0014" route="route_ew_full" type="vehicle.volkswagen.t2_occ"/>
  <vehicle color="9,15,19" depart="12.0" id="occ_0015" route="route_ew_full" type="vehicle.volkswagen.t2_occ"/>
  <vType accel="2.6" decel="4.5" guiShape="passenger" height="1.5" id="vehicle.audi.a2_base" length="4.5" minGap="2.5" sigma="0.5" speedDev="0.1" speedFactor="normc(1.0,0.1,0.8,1.2)" tau="1.0" vClass="passenger" width="1.8"/>
  <vehicle color="0,18,20" depart="12.2" id="base_0007" route="route_north" type="vehicle.audi.a2_base"/>
  <vehicle color="123,134,147" depart="12.8" id="occ_0016" route="route_ew_full" type="vehicle.volkswagen.t2_2021_occ"/>
  <vType accel="2.6" decel="4.5" guiShape="passenger" height="1.5" id="vehicle.mercedes.coupe_2020_occ" length="4.5" minGap="1.5" sigma="0.8" speedDev="0.1" speedFactor="normc(0.9,0.1,0.7,1.1)" tau="1.2" vClass="passenger" width="1.8"/>
  <vehicle color="28,21,5" depart="13.6" id="occ_0017" route="route_ew_full" type="vehicle.mercedes.coupe_2020_occ"/>
  <vType accel="2.6" decel="4.5" guiShape="passenger" height="1.5" id="vehicle.lincoln.mkz_2017_base" length="4.5" minGap="2.5" sigma="0.5" speedDev="0.1" speedFactor="normc(1.0,0.1,0.8,1.2)" tau="1.0" vClass="passenger" width="1.8"/>
  <vehicle color="141,20,49" depart="14.0" id="base_0008" route="route_highway_rev" type="vehicle.lincoln.mkz_2017_base"/>
  <vType accel="2.6" decel="4.5" guiShape="passenger" height="1.5" id="vehicle.lincoln.mkz_2017_occ" length="4.5" minGap="1.5" sigma="0.8" speedDev="0.1" speedFactor="normc(0.9,0.1,0.7,1.1)" tau="1.2" vClass="passenger" width="1.8"/>
  <vehicle color="12,79,214" depart="14.4" id="occ_0018" route="route_ew_full" type="vehicle.lincoln.mkz_2017_occ"/>
  <vehicle color="236,252,254" depart="15.2" id="occ_0019" route="route_ew_full" type="vehicle.jeep.wrangler_rubicon_occ"/>
  <vType accel="2.6" decel="4.5" guiShape="passenger/van" height="1.8" id="vehicle.nissan.patrol_base" length="5.0" minGap="2.5" sigma="0.5" speedDev="0.1" speedFactor="normc(1.0,0.1,0.8,1.2)" tau="1.0" vClass="passenger" width="2.0"/>
  <vehicle color="15,62,222" depart="15.8" id="base_0009" route="route_north" type="vehicle.nissan.patrol_base"/>
  <vehicle color="249,252,250" depart="16.0" id="occ_0020" route="route_ew_full" type="vehicle.jeep.wrangler_rubicon_occ"/>
  <vehicle color="129,189,217" depart="16.8" id="occ_0021" route="route_ew_full" type="vehicle.audi.etron_occ"/>
  <vehicle color="127,132,115" depart="17.5" id="base_0010" route="route_ew_full" type="vehicle.audi.etron_base"/>
  <vType accel="2.6" decel="4.5" guiShape="passenger" height="1.5" id="vehicle.chevrolet.impala_occ" length="4.5" minGap="1.5" sigma="0.8" speedDev="0.1" speedFactor="normc(0.9,0.1,0.7,1.1)" tau="1.2" vClass="passenger" width="1.8"/>
  <vehicle color="255,247,221" depart="17.6" id="occ_0022" route="route_ew_full" type="vehicle.chevrolet.impala_occ"/>
  <vType accel="2.6" decel="4.5" guiShape="passenger/hatchback" height="1.5" id="vehicle.citroen.c3_occ" length="4.0" minGap="1.5" sigma="0.8" speedDev="0.1" speedFactor="normc(0.9,0.1,0.7,1.1)" tau="1.2" vClass="passenger" width="1.8"/>
  <vehicle color="22,32,15" depart="18.4" id="occ_0023" route="route_ew_full" type="vehicle.citroen.c3_occ"/>
  <vehicle color="239,255,241" depart="19.2" id="base_0011" route="route_east" type="vehicle.audi.tt_base"/>
  <vehicle color="238,255,254" depart="19.2" id="occ_0024" route="route_ew_full" type="vehicle.mercedes.coupe_occ"/>
  <vehicle color="17,26,21" depart="20.0" id="occ_0025" route="route_ew_full" type="vehicle.volkswagen.t2_occ"/>
  <vType accel="2.6" decel="4.5" guiShape="passenger" height="1.5" id="vehicle.toyota.prius_occ" length="4.5" minGap="1.5" sigma="0.8" speedDev="0.1" speedFactor="normc(0.9,0.1,0.7,1.1)" tau="1.2" vClass="passenger" width="1.8"/>
  <vehicle color="40,68,207" depart="20.8" id="occ_0026" route="route_ew_full" type="vehicle.toyota.prius_occ"/>
  <vehicle color="111,148,133" depart="21.0" id="base_0012" route="route_east" type="vehicle.audi.tt_base"/>
  <vType accel="2.6" decel="4.5" guiShape="passenger" height="1.5" id="vehicle.dodge.charger_police_occ" length="4.5" minGap="1.5" sigma="0.8" speedDev="0.1" speedFactor="normc(0.9,0.1,0.7,1.1)" tau="1.2" vClass="passenger" width="1.8"/>
  <vehicle color="255,248,255" depart="21.6" id="occ_0027" route="route_ew_full" type="vehicle.dodge.charger_police_occ"/>
  <vType accel="2.6" decel="4.5" guiShape="passenger" height="1.5" id="vehicle.bmw.grandtourer_occ" length="4.5" minGap="1.5" sigma="0.8" speedDev="0.1" speedFactor="normc(0.9,0.1,0.7,1.1)" tau="1.2" vClass="passenger" width="1.8"/>
  <vehicle color="10,0,15" depart="22.4" id="occ_0028" route="route_ew_full" type="vehicle.bmw.grandtourer_occ"/>
  <vType accel="2.6" decel="4.5" guiShape="delivery" height="1.8" id="vehicle.volkswagen.t2_base" length="5.0" minGap="2.5" sigma="0.5" speedDev="0.1" speedFactor="normc(1.0,0.1,0.8,1.2)" tau="1.0" vClass="passenger" width="2.0"/>
  <vehicle color="36,40,47" depart="22.8" id="base_0013" route="route_east" type="vehicle.volkswagen.t2_base"/>
  <vehicle color="255,253,255" depart="23.2" id="occ_0029" route="route_ew_full" type="vehicle.mini.cooper_s_occ"/>
  <vType accel="2.6" decel="4.5" guiShape="passenger" height="1.5" id="vehicle.dodge.charger_2020_occ" length="4.5" minGap="1.5" sigma="0.8" speedDev="0.1" speedFactor="normc(0.9,0.1,0.7,1.1)" tau="1.2" vClass="passenger" width="1.8"/>
  <vehicle color="140,125,137" depart="24.0" id="occ_0030" route="route_ew_full" type="vehicle.dodge.charger_2020_occ"/>
  <vType accel="2.6" decel="4.5" guiShape="passenger" height="1.5" id="vehicle.chevrolet.impala_base" length="4.5" minGap="2.5" sigma="0.5" speedDev="0.1" speedFactor="normc(1.0,0.1,0.8,1.2)" tau="1.0" vClass="passenger" width="1.8"/>
  <vehicle color="252,236,237" depart="24.5" id="base_0014" route="route_east" type="vehicle.chevrolet.impala_base"/>
  <vehicle color="255,255,255" depart="24.8" id="occ_0031" route="route_ew_full" type="vehicle.lincoln.mkz_2017_occ"/>
  <vehicle color="153,90,51" depart="25.6" id="occ_0032" route="route_ew_full" type="vehicle.citroen.c3_occ"/>
  <vehicle color="120,7,0" depart="26.2" id="base_0015" route="route_east" type="vehicle.jeep.wrangler_rubicon_base"/>
  <vehicle color="26,80,217" depart="26.4" id="occ_0033" route="route_ew_full" type="vehicle.chevrolet.impala_occ"/>
  <vType accel="2.6" decel="4.5" guiShape="passenger" height="1.5" id="vehicle.lincoln.mkz_2020_occ" length="4.5" minGap="1.5" sigma="0.8" speedDev="0.1" speedFactor="normc(0.9,0.1,0.7,1.1)" tau="1.2" vClass="passenger" width="1.8"/>
  <vehicle color="145,125,138" depart="27.2" id="occ_0034" route="route_ew_full" type="vehicle.lincoln.mkz_2020_occ"/>
  <vType accel="2.6" decel="4.5" guiShape="passenger" height="1.5" id="vehicle.dodge.charger_2020_base" length="4.5" minGap="2.5" sigma="0.5" speedDev="0.1" speedFactor="normc(1.0,0.1,0.8,1.2)" tau="1.0" vClass="passenger" width="1.8"/>
  <vehicle color="31,0,23" depart="28.0" id="base_0016" route="route_ew_full" type="vehicle.dodge.charger_2020_base"/>
  <vehicle color="138,192,225" depart="28.0" id="occ_0035" route="route_ew_full" type="vehicle.audi.tt_occ"/>
  <vehicle color="46,31,70" depart="28.8" id="occ_0036" route="route_ew_full" type="vehicle.toyota.prius_occ"/>
  <vehicle color="0,0,129" depart="29.6" id="occ_0037" route="route_ew_full" type="vehicle.lincoln.mkz_2017_occ"/>
  <vehicle color="245,234,245" depart="29.8" id="base_0017" route="route_north" type="vehicle.jeep.wrangler_rubicon_base"/>
  <vehicle color="52,66,57" depart="30.4" id="occ_0038" route="route_ew_full" type="vehicle.lincoln.mkz_2017_occ"/>
  <vehicle color="36,149,35" depart="31.2" id="occ_0039" route="route_ew_full" type="vehicle.mini.cooper_s_2021_occ"/>
  <vehicle color="255,237,238" depart="31.5" id="base_0018" route="route_ew_full" type="vehicle.tesla.model3_base"/>
  <vehicle color="28,6,34" depart="32.0" id="occ_0040" route="route_ew_full" type="vehicle.dodge.charger_2020_occ"/>
  <vehicle color="136,0,0" depart="32.8" id="occ_0041" route="route_ew_full" type="vehicle.dodge.charger_2020_occ"/>
  <vehicle color="59,38,59" depart="33.2" id="base_0019" route="route_west_entry" type="vehicle.volkswagen.t2_base"/>
  <vType accel="2.6" decel="4.5" guiShape="passenger" height="1.5" id="vehicle.tesla.model3_occ" length="4.5" minGap="1.5" sigma="0.8" speedDev="0.1" speedFactor="normc(0.9,0.1,0.7,1.1)" tau="1.2" vClass="passenger" width="1.8"/>
  <vehicle color="221,27,40" depart="33.6" id="occ_0042" route="route_ew_full" type="vehicle.tesla.model3_occ"/>
  <vehicle color="19,20,24" depart="34.4" id="occ_0043" route="route_ew_full" type="vehicle.jeep.wrangler_rubicon_occ"/>
  <vehicle color="244,255,243" depart="35.0" id="base_0020" route="route_north" type="vehicle.audi.etron_base"/>
  <vehicle color="0,32,14" depart="35.2" id="occ_0044" route="route_ew_full" type="vehicle.mercedes.coupe_2020_occ"/>
  <vehicle color="53,37,31" depart="36.0" id="occ_0045" route="route_ew_full" type="vehicle.chevrolet.impala_occ"/>
  <vehicle color="255,250,242" depart="36.8" id="base_0021" route="route_ew_full" type="vehicle.audi.etron_base"/>
  <vehicle color="241,251,241" depart="36.8" id="occ_0046" route="route_ew_full" type="vehicle.mercedes.coupe_occ"/>
  <vehicle color="211,210,212" depart="37.6" id="occ_0047" route="route_ew_full" type="vehicle.bmw.grandtourer_occ"/>
  <vehicle color="240,253,255" depart="38.4" id="occ_0048" route="route_ew_full" type="vehicle.lincoln.mkz_2017_occ"/>
  <vehicle color="217,24,27" depart="38.5" id="base_0022" route="route_south" type="vehicle.lincoln.mkz_2017_base"/>
  <vehicle color="225,45,11" depart="39.2" id="occ_0049" route="route_ew_full" type="vehicle.mercedes.coupe_occ"/>
  <vType accel="2.6" decel="4.5" guiShape="delivery" height="1.8" id="vehicle.volkswagen.t2_2021_base" length="5.0" minGap="2.5" sigma="0.5" speedDev="0.1" speedFactor="normc(1.0,0.1,0.8,1.2)" tau="1.0" vClass="passenger" width="2.0"/>
  <vehicle color="116,124,125" depart="40.2" id="base_0023" route="route_north" type="vehicle.volkswagen.t2_2021_base"/>
  <vehicle color="24,65,238" depart="42.0" id="base_0024" route="route_north" type="vehicle.chevrolet.impala_base"/>
  <vehicle color="16,20,0" depart="43.8" id="base_0025" route="route_west_entry" type="vehicle.jeep.wrangler_rubicon_base"/>
  <vType accel="2.6" decel="4.5" guiShape="delivery" height="1.8" id="vehicle.volkswagen.t2_hard" length="5.0" minGap="2.5" sigma="0.5" speedDev="0.1" speedFactor="normc(1.0,0.1,0.8,1.2)" tau="1.0" vClass="passenger" width="2.0"/>
  <vehicle color="251,255,250" depart="45.0" departLane="best" departPos="base" departSpeed="max" id="H01_00" route="route_west_entry" type="vehicle.volkswagen.t2_hard"/>
  <vehicle color="246,251,214" depart="45.5" id="base_0026" route="route_north" type="vehicle.dodge.charger_2020_base"/>
  <vehicle color="251,255,250" depart="46.5" departLane="best" departPos="base" departSpeed="max" id="H01_01" route="route_west_entry" type="vehicle.volkswagen.t2_hard"/>
  <vType accel="2.6" decel="4.5" guiShape="passenger/van" height="1.8" id="vehicle.nissan.patrol_2021_base" length="5.0" minGap="2.5" sigma="0.5" speedDev="0.1" speedFactor="normc(1.0,0.1,0.8,1.2)" tau="1.0" vClass="passenger" width="2.0"/>
  <vehicle color="243,243,248" depart="47.2" id="base_0027" route="route_highway_rev" type="vehicle.nissan.patrol_2021_base"/>
  <vehicle color="251,255,250" depart="48.0" departLane="best" departPos="base" departSpeed="max" id="H01_02" route="route_west_entry" type="vehicle.volkswagen.t2_hard"/>
  <vehicle color="182,203,172" depart="49.0" id="base_0028" route="route_east" type="vehicle.dodge.charger_police_base"/>
  <vehicle color="251,255,250" depart="49.5" departLane="best" departPos="base" departSpeed="max" id="H01_03" route="route_west_entry" type="vehicle.volkswagen.t2_hard"/>
  <vehicle color="150,75,23" depart="50.8" id="base_0029" route="route_ew_full" type="vehicle.chevrolet.impala_base"/>
  <vehicle color="251,255,250" depart="51.0" departLane="best" departPos="base" departSpeed="max" id="H01_04" route="route_west_entry" type="vehicle.volkswagen.t2_hard"/>
  <vType accel="2.6" decel="4.5" guiShape="passenger/hatchback" height="1.5" id="vehicle.mini.cooper_s_base" length="4.0" minGap="2.5" sigma="0.5" speedDev="0.1" speedFactor="normc(1.0,0.1,0.8,1.2)" tau="1.0" vClass="passenger" width="1.8"/>
  <vehicle color="138,0,16" depart="52.5" id="base_0030" route="route_ew_full" type="vehicle.mini.cooper_s_base"/>
  <vehicle color="0,3,0" depart="54.2" id="base_0031" route="route_ew_full" type="vehicle.nissan.patrol_base"/>
  <vehicle color="205,206,180" depart="56.0" id="base_0032" route="route_west_entry" type="vehicle.dodge.charger_2020_base"/>
  <vehicle color="235,200,0" depart="57.8" id="base_0033" route="route_ew_full" type="vehicle.dodge.charger_2020_base"/>
  <vehicle color="43,64,224" depart="59.5" id="base_0034" route="route_highway_rev" type="vehicle.audi.etron_base"/>
  <vehicle color="205,183,204" depart="61.2" id="base_0035" route="route_south" type="vehicle.mini.cooper_s_base"/>
  <vehicle color="205,202,195" depart="63.0" id="base_0036" route="route_west_entry" type="vehicle.jeep.wrangler_rubicon_base"/>
  <vType accel="2.6" decel="4.5" guiShape="passenger/hatchback" height="1.5" id="vehicle.nissan.micra_base" length="4.0" minGap="2.5" sigma="0.5" speedDev="0.1" speedFactor="normc(1.0,0.1,0.8,1.2)" tau="1.0" vClass="passenger" width="1.8"/>
  <vehicle color="110,140,145" depart="64.8" id="base_0037" route="route_north" type="vehicle.nissan.micra_base"/>
  <vehicle color="199,181,178" depart="66.5" id="base_0038" route="route_east" type="vehicle.nissan.micra_base"/>
  <vehicle color="37,65,37" depart="68.2" id="base_0039" route="route_ew_full" type="vehicle.audi.tt_base"/>
  <vehicle color="235,255,250" depart="70.0" id="base_0040" route="route_east" type="vehicle.nissan.patrol_2021_base"/>
  <vehicle color="22,64,218" depart="71.8" id="base_0041" route="route_north" type="vehicle.volkswagen.t2_2021_base"/>
  <vType accel="2.6" decel="4.5" guiShape="passenger" height="1.5" id="vehicle.ford.ambulance_base" length="4.5" minGap="2.5" sigma="0.5" speedDev="0.1" speedFactor="normc(1.0,0.1,0.8,1.2)" tau="1.0" vClass="passenger" width="1.8"/>
  <vehicle color="255,240,236" depart="73.5" id="base_0042" route="route_west_entry" type="vehicle.ford.ambulance_base"/>
  <vType accel="2.6" decel="4.5" guiShape="passenger" height="1.5" id="vehicle.bmw.grandtourer_base" length="4.5" minGap="2.5" sigma="0.5" speedDev="0.1" speedFactor="normc(1.0,0.1,0.8,1.2)" tau="1.0" vClass="passenger" width="1.8"/>
  <vehicle color="48,55,206" depart="75.2" id="base_0043" route="route_highway_rev" type="vehicle.bmw.grandtourer_base"/>
  <vehicle color="230,236,241" depart="77.0" id="base_0044" route="route_north" type="vehicle.nissan.micra_base"/>
  <vehicle color="255,255,239" depart="78.8" id="base_0045" route="route_east" type="vehicle.jeep.wrangler_rubicon_base"/>
  <vehicle color="21,3,12" depart="80.5" id="base_0046" route="route_highway_rev" type="vehicle.jeep.wrangler_rubicon_base"/>
  <vehicle color="254,246,255" depart="82.2" id="base_0047" route="route_north" type="vehicle.jeep.wrangler_rubicon_base"/>
  <vehicle color="31,32,0" depart="84.0" id="base_0048" route="route_ew_full" type="vehicle.volkswagen.t2_base"/>
  <vType accel="2.6" decel="4.5" guiShape="delivery" height="1.8" id="vehicle.volkswagen.t2_2021_hard" length="5.0" minGap="2.5" sigma="0.5" speedDev="0.1" speedFactor="normc(1.0,0.1,0.8,1.2)" tau="1.0" vClass="passenger" width="2.0"/>
  <vehicle color="255,255,249" depart="85.0" departLane="best" departPos="base" departSpeed="max" id="H02_00" route="route_south" type="vehicle.volkswagen.t2_2021_hard"/>
  <vType accel="2.6" decel="4.5" guiShape="passenger" height="1.5" id="vehicle.mercedes.coupe_base" length="4.5" minGap="2.5" sigma="0.5" speedDev="0.1" speedFactor="normc(1.0,0.1,0.8,1.2)" tau="1.0" vClass="passenger" width="1.8"/>
  <vehicle color="237,39,44" depart="85.8" id="base_0049" route="route_west_entry" type="vehicle.mercedes.coupe_base"/>
  <vehicle color="255,255,249" depart="86.5" departLane="best" departPos="base" departSpeed="max" id="H02_01" route="route_south" type="vehicle.volkswagen.t2_2021_hard"/>
  <vehicle color="37,43,234" depart="87.5" id="base_0050" route="route_west_entry" type="vehicle.volkswagen.t2_base"/>
  <vehicle color="255,255,249" depart="88.0" departLane="best" departPos="base" departSpeed="max" id="H02_02" route="route_south" type="vehicle.volkswagen.t2_2021_hard"/>
  <vehicle color="242,255,252" depart="89.2" id="base_0051" route="route_east" type="vehicle.audi.tt_base"/>
  <vehicle color="255,255,249" depart="89.5" departLane="best" departPos="base" departSpeed="max" id="H02_03" route="route_south" type="vehicle.volkswagen.t2_2021_hard"/>
  <vType accel="2.6" decel="4.5" guiShape="passenger/hatchback" height="1.5" id="vehicle.citroen.c3_base" length="4.0" minGap="2.5" sigma="0.5" speedDev="0.1" speedFactor="normc(1.0,0.1,0.8,1.2)" tau="1.0" vClass="passenger" width="1.8"/>
  <vehicle color="136,145,136" depart="91.0" id="base_0052" route="route_south" type="vehicle.citroen.c3_base"/>
  <vehicle color="255,255,249" depart="91.0" departLane="best" departPos="base" departSpeed="max" id="H02_04" route="route_south" type="vehicle.volkswagen.t2_2021_hard"/>
  <vehicle color="255,245,255" depart="92.8" id="base_0053" route="route_ew_full" type="vehicle.nissan.patrol_base"/>
  <vType accel="2.6" decel="4.5" guiShape="passenger" height="1.5" id="vehicle.mercedes.coupe_2020_base" length="4.5" minGap="2.5" sigma="0.5" speedDev="0.1" speedFactor="normc(1.0,0.1,0.8,1.2)" tau="1.0" vClass="passenger" width="1.8"/>
  <vehicle color="239,255,255" depart="94.5" id="base_0054" route="route_east" type="vehicle.mercedes.coupe_2020_base"/>
  <vehicle color="44,62,55" depart="96.2" id="base_0055" route="route_highway_rev" type="vehicle.bmw.grandtourer_base"/>
  <vehicle color="251,235,250" depart="98.0" id="base_0056" route="route_west_entry" type="vehicle.chevrolet.impala_base"/>
  <vType accel="2.6" decel="4.5" guiShape="passenger" height="1.5" id="vehicle.lincoln.mkz_2020_base" length="4.5" minGap="2.5" sigma="0.5" speedDev="0.1" speedFactor="normc(1.0,0.1,0.8,1.2)" tau="1.0" vClass="passenger" width="1.8"/>
  <vehicle color="255,235,239" depart="99.8" id="base_0057" route="route_west_entry" type="vehicle.lincoln.mkz_2020_base"/>
  <vehicle color="237,255,244" depart="101.5" id="base_0058" route="route_east" type="vehicle.dodge.charger_2020_base"/>
  <vehicle color="238,252,252" depart="103.2" id="base_0059" route="route_east" type="vehicle.nissan.patrol_2021_base"/>
  <vehicle color="139,0,31" depart="105.0" id="base_0060" route="route_south" type="vehicle.mini.cooper_s_base"/>
  <vehicle color="47,46,46" depart="106.8" id="base_0061" route="route_east" type="vehicle.audi.a2_base"/>
  <vehicle color="236,196,14" depart="108.5" id="base_0062" route="route_highway_rev" type="vehicle.mini.cooper_s_base"/>
  <vehicle color="4,33,16" depart="110.2" id="base_0063" route="route_south" type="vehicle.audi.etron_base"/>
  <vehicle color="126,142,128" depart="112.0" id="base_0064" route="route_west_entry" type="vehicle.jeep.wrangler_rubicon_base"/>
  <vehicle color="19,0,0" depart="113.8" id="base_0065" route="route_ew_full" type="vehicle.jeep.wrangler_rubicon_base"/>
  <vehicle color="204,183,186" depart="115.5" id="base_0066" route="route_south" type="vehicle.audi.tt_base"/>
  <vehicle color="34,38,34" depart="117.2" id="base_0067" route="route_ew_full" type="vehicle.bmw.grandtourer_base"/>
  <vType accel="2.6" decel="4.5" guiShape="passenger/hatchback" height="1.5" id="vehicle.mini.cooper_s_2021_base" length="4.0" minGap="2.5" sigma="0.5" speedDev="0.1" speedFactor="normc(1.0,0.1,0.8,1.2)" tau="1.0" vClass="passenger" width="1.8"/>
  <vehicle color="141,19,45" depart="119.0" id="base_0068" route="route_south" type="vehicle.mini.cooper_s_2021_base"/>
  <vType accel="2.6" decel="4.5" guiShape="passenger" height="1.5" id="vehicle.toyota.prius_base" length="4.5" minGap="2.5" sigma="0.5" speedDev="0.1" speedFactor="normc(1.0,0.1,0.8,1.2)" tau="1.0" vClass="passenger" width="1.8"/>
  <vehicle color="40,51,41" depart="120.8" id="base_0069" route="route_south" type="vehicle.toyota.prius_base"/>
  <vehicle color="14,17,34" depart="122.5" id="base_0070" route="route_south" type="vehicle.nissan.patrol_base"/>
  <vehicle color="172,183,183" depart="124.2" id="base_0071" route="route_highway_rev" type="vehicle.bmw.grandtourer_base"/>
  <vType accel="2.6" decel="4.5" guiShape="passenger/hatchback" height="1.5" id="vehicle.mini.cooper_s_hard" length="4.0" minGap="2.5" sigma="0.5" speedDev="0.1" speedFactor="normc(1.0,0.1,0.8,1.2)" tau="1.0" vClass="passenger" width="1.8"/>
  <vehicle color="43,73,215" depart="125.0" departLane="best" departPos="base" departSpeed="max" id="H03_00" route="route_south" type="vehicle.mini.cooper_s_hard"/>
  <vehicle color="31,0,0" depart="126.0" id="base_0072" route="route_east" type="vehicle.bmw.grandtourer_base"/>
  <vehicle color="43,73,215" depart="126.5" departLane="best" departPos="base" departSpeed="max" id="H03_01" route="route_south" type="vehicle.mini.cooper_s_hard"/>
  <vehicle color="21,61,201" depart="127.8" id="base_0073" route="route_south" type="vehicle.ford.ambulance_base"/>
  <vehicle color="43,73,215" depart="128.0" departLane="best" departPos="base" departSpeed="max" id="H03_02" route="route_south" type="vehicle.mini.cooper_s_hard"/>
  <vehicle color="255,255,246" depart="129.5" id="base_0074" route="route_ew_full" type="vehicle.chevrolet.impala_base"/>
  <vehicle color="43,73,215" depart="129.5" departLane="best" departPos="base" departSpeed="max" id="H03_03" route="route_south" type="vehicle.mini.cooper_s_hard"/>
  <vehicle color="43,73,215" depart="131.0" departLane="best" departPos="base" departSpeed="max" id="H03_04" route="route_south" type="vehicle.mini.cooper_s_hard"/>
  <vehicle color="248,247,226" depart="131.2" id="base_0075" route="route_south" type="vehicle.mercedes.coupe_base"/>
  <vehicle color="177,194,212" depart="133.0" id="base_0076" route="route_north" type="vehicle.bmw.grandtourer_base"/>
  <vehicle color="51,51,45" depart="134.8" id="base_0077" route="route_east" type="vehicle.jeep.wrangler_rubicon_base"/>