<?xml version="1.0" encoding="UTF-8"?>

<!-- generated on 2025-12-24 14:43:53 by Eclipse SUMO duarouter Version 1.14.1
<configuration xmlns:xsi="http://www.w3.org/2001/XMLSchema-instance" xsi:noNamespaceSchemaLocation="http://sumo.dlr.de/xsd/duarouterConfiguration.xsd">

    <input>
        <net-file value="sumo/Town05.net.xml"/>
        <route-files value="sumo/simveri.rou.xml"/>
    </input>

    <output>
        <output-file value="sumo/validated.rou.xml"/>
    </output>

</configuration>
-->

<routes xmlns:xsi="http://www.w3.org/2001/XMLSchema-instance" xsi:noNamespaceSchemaLocation="http://sumo.dlr.de/xsd/routes_file.xsd">
    <vType id="vehicle.mini.cooper_s_base" length="4.00" minGap="2.50" speedFactor="normc(1.00,0.10,0.80,1.20)" vClass="passenger" width="1.80" height="1.50" accel="2.6" decel="4.5" sigma="0.5" tau="1.0"/>
    <vehicle id="base_0000" type="vehicle.mini.cooper_s_base" depart="0.00" color="9,15,17">
        <route edges="-6.0.00 -7.0.00 -8.0.00 -9.0.00"/>
    </vehicle>
    <vType id="vehicle.jeep.wrangler_rubicon_occ" length="5.00" minGap="1.50" speedFactor="normc(0.90,0.10,0.70,1.10)" vClass="passenger" width="2.00" height="1.80" accel="2.6" decel="4.5" sigma="0.8" tau="1.2"/>
    <vehicle id="occ_0000" type="vehicle.jeep.wrangler_rubicon_occ" depart="0.00" color="14,8,26">
        <route edges="-39.0.00 -0.0.00 -1.0.00 -2.0.00 -3.0.00"/>
    </vehicle>
    <vType id="vehicle.lincoln.mkz_2020_occ" length="4.50" minGap="1.50" speedFactor="normc(0.90,0.10,0.70,1.10)" vClass="passenger" width="1.80" height="1.50" accel="2.6" decel="4.5" sigma="0.8" tau="1.2"/>
    <vehicle id="occ_0001" type="vehicle.lincoln.mkz_2020_occ" depart="0.80" color="0,1,9">
        <route edges="-39.0.00 -0.0.00 -1.0.00 -2.0.00 -3.0.00"/>
    </vehicle>
    <vType id="vehicle.jeep.wrangler_rubicon_base" length="5.00" minGap="2.50" speedFactor="normc(1.00,0.10,0.80,1.20)" vClass="passenger" width="2.00" height="1.80" accel="2.6" decel="4.5" sigma="0.5" tau="1.0"/>
    <vehicle id="base_0001" type="vehicle.jeep.wrangler_rubicon_base" depart="1.50" color="38,143,43">
        <route edges="-39.0.00 -0.0.00 -1.0.00 -2.0.00 -3.0.00"/>
    </vehicle>
    <vType id="vehicle.audi.a2_occ" length="4.50" minGap="1.50" speedFactor="normc(0.90,0.10,0.70,1.10)" vClass="passenger" width="1.80" height="1.50" accel="2.6" decel="4.5" sigma="0.8" tau="1.2"/>
    <vehicle id="occ_0002" type="vehicle.audi.a2_occ" depart="1.60" color="43,56,41">
        <route edges="-39.0.00 -0.0.00 -1.0.00 -2.0.00 -3.0.00"/>
    </vehicle>
    <vType id="vehicle.carlamotors.carlacola_occ" length="4.50" minGap="1.50" speedFactor="normc(0.90,0.10,0.70,1.10)" vClass="passenger" width="1.80" height="1.50" accel="2.6" decel="4.5" sigma="0.8" tau="1.2"/>
    <vehicle id="occ_0003" type="vehicle.carlamotors.carlacola_occ" depart="2.40" color="254,235,255">
        <route edges="-39.0.00 -0.0.00 -1.0.00 -2.0.00 -3.0.00"/>
    </vehicle>
    <vType id="vehicle.nissan.patrol_2021_base" length="5.00" minGap="2.50" speedFactor="normc(1.00,0.10,0.80,1.20)" vClass="passenger" width="2.00" height="1.80" accel="2.6" decel="4.5" sigma="0.5" tau="1.0"/>
    <vehicle id="base_0002" type="vehicle.nissan.patrol_2021_base" depart="3.00" color="43,43,64">
        <route edges="20.0.00 48.0.00 -39.0.00 25.0.00"/>
    </vehicle>
    <vType id="vehicle.audi.etron_occ" length="5.00" minGap="1.50" speedFactor="normc(0.90,0.10,0.70,1.10)" vClass="passenger" width="2.00" height="1.80" accel="2.6" decel="4.5" sigma="0.8" tau="1.2"/>
    <vehicle id="occ_0004" type="vehicle.audi.etron_occ" depart="3.20" color="34,48,46">
        <route edges="-39.0.00 -0.0.00 -1.0.00 -2.0.00 -3.0.00"/>
    </vehicle>
    <vehicle id="occ_0005" type="vehicle.audi.etron_occ" depart="4.00" color="52,67,33">
        <route edges="-39.0.00 -0.0.00 -1.0.00 -2.0.00 -3.0.00"/>
    </vehicle>
    <vType id="vehicle.nissan.patrol_base" length="5.00" minGap="2.50" speedFactor="normc(1.00,0.10,0.80,1.20)" vClass="passenger" width="2.00" height="1.80" accel="2.6" decel="4.5" sigma="0.5" tau="1.0"/>
    <vehicle id="base_0003" type="vehicle.nissan.patrol_base" depart="4.50" color="0,27,0">
        <route edges="-36.0.00 -38.0.00"/>
    </vehicle>
    <vType id="vehicle.mini.cooper_s_occ" length="4.00" minGap="1.50" speedFactor="normc(0.90,0.10,0.70,1.10)" vClass="passenger" width="1.80" height="1.50" accel="2.6" decel="4.5" sigma="0.8" tau="1.2"/>
    <vehicle id="occ_0006" type="vehicle.mini.cooper_s_occ" depart="4.80" color="255,235,224">
        <route edges="-39.0.00 -0.0.00 -1.0.00 -2.0.00 -3.0.00"/>
    </vehicle>
    <vType id="vehicle.nissan.patrol_hard" length="5.00" minGap="2.00" speedFactor="normc(1.00,0.00)" vClass="passenger" width="2.00" height="1.80" accel="2.6" decel="4.5" sigma="0.0" tau="0.8"/>
    <vehicle id="H00_00" type="vehicle.nissan.patrol_hard" depart="5.00" departLane="best" departPos="10.00" departSpeed="0.00" color="133,125,126">
        <route edges="27.0.00 37.0.00 35.0.00"/>
    </vehicle>
    <vehicle id="H00_01" type="vehicle.nissan.patrol_hard" depart="5.00" departLane="best" departPos="25.00" departSpeed="0.00" color="133,125,126">
        <route edges="27.0.00 37.0.00 35.0.00"/>
    </vehicle>
    <vehicle id="H00_02" type="vehicle.nissan.patrol_hard" depart="5.00" departLane="best" departPos="40.00" departSpeed="0.00" color="133,125,126">
        <route edges="27.0.00 37.0.00 35.0.00"/>
    </vehicle>
    <vehicle id="H00_03" type="vehicle.nissan.patrol_hard" depart="5.00" departLane="best" departPos="55.00" departSpeed="0.00" color="133,125,126">
        <route edges="27.0.00 37.0.00 35.0.00"/>
    </vehicle>
    <vehicle id="H00_04" type="vehicle.nissan.patrol_hard" depart="5.00" departLane="best" departPos="70.00" departSpeed="0.00" color="133,125,126">
        <route edges="27.0.00 37.0.00 35.0.00"/>
    </vehicle>
    <vehicle id="occ_0007" type="vehicle.lincoln.mkz_2020_occ" depart="5.60" color="252,255,254">
        <route edges="-39.0.00 -0.0.00 -1.0.00 -2.0.00 -3.0.00"/>
    </vehicle>
    <vType id="vehicle.lincoln.mkz_2017_base" length="4.50" minGap="2.50" speedFactor="normc(1.00,0.10,0.80,1.20)" vClass="passenger" width="1.80" height="1.50" accel="2.6" decel="4.5" sigma="0.5" tau="1.0"/>
    <vehicle id="base_0004" type="vehicle.lincoln.mkz_2017_base" depart="6.00" color="145,117,116">
        <route edges="-36.0.00 -38.0.00"/>
    </vehicle>
    <vType id="vehicle.nissan.patrol_occ" length="5.00" minGap="1.50" speedFactor="normc(0.90,0.10,0.70,1.10)" vClass="passenger" width="2.00" height="1.80" accel="2.6" decel="4.5" sigma="0.8" tau="1.2"/>
    <vehicle id="occ_0008" type="vehicle.nissan.patrol_occ" depart="6.40" color="247,255,227">
        <route edges="-39.0.00 -0.0.00 -1.0.00 -2.0.00 -3.0.00"/>
    </vehicle>
    <vType id="vehicle.bmw.grandtourer_occ" length="4.50" minGap="1.50" speedFactor="normc(0.90,0.10,0.70,1.10)" vClass="passenger" width="1.80" height="1.50" accel="2.6" decel="4.5" sigma="0.8" tau="1.2"/>
    <vehicle id="occ_0009" type="vehicle.bmw.grandtourer_occ" depart="7.20" color="255,250,254">
        <route edges="-39.0.00 -0.0.00 -1.0.00 -2.0.00 -3.0.00"/>
    </vehicle>
    <vType id="vehicle.mini.cooper_s_2021_base" length="4.00" minGap="2.50" speedFactor="normc(1.00,0.10,0.80,1.20)" vClass="passenger" width="1.80" height="1.50" accel="2.6" decel="4.5" sigma="0.5" tau="1.0"/>
    <vehicle id="base_0005" type="vehicle.mini.cooper_s_2021_base" depart="7.50" color="9,4,28">
        <route edges="20.0.00 48.0.00 -39.0.00 25.0.00"/>
    </vehicle>
    <vType id="vehicle.toyota.prius_occ" length="4.50" minGap="1.50" speedFactor="normc(0.90,0.10,0.70,1.10)" vClass="passenger" width="1.80" height="1.50" accel="2.6" decel="4.5" sigma="0.8" tau="1.2"/>
    <vehicle id="occ_0010" type="vehicle.toyota.prius_occ" depart="8.00" color="40,38,56">
        <route edges="-39.0.00 -0.0.00 -1.0.00 -2.0.00 -3.0.00"/>
    </vehicle>
    <vType id="vehicle.ford.ambulance_occ" length="4.50" minGap="1.50" speedFactor="normc(0.90,0.10,0.70,1.10)" vClass="passenger" width="1.80" height="1.50" accel="2.6" decel="4.5" sigma="0.8" tau="1.2"/>
    <vehicle id="occ_0011" type="vehicle.ford.ambulance_occ" depart="8.80" color="9,8,0">
        <route edges="-39.0.00 -0.0.00 -1.0.00 -2.0.00 -3.0.00"/>
    </vehicle>
    <vType id="vehicle.citroen.c3_base" length="4.00" minGap="2.50" speedFactor="normc(1.00,0.10,0.80,1.20)" vClass="passenger" width="1.80" height="1.50" accel="2.6" decel="4.5" sigma="0.5" tau="1.0"/>
    <vehicle id="base_0006" type="vehicle.citroen.c3_base" depart="9.00" color="70,49,42">
        <route edges="20.0.00 48.0.00 -39.0.00 25.0.00"/>
    </vehicle>
    <vType id="vehicle.audi.tt_occ" length="4.50" minGap="1.50" speedFactor="normc(0.90,0.10,0.70,1.10)" vClass="passenger" width="1.80" height="1.50" accel="2.6" decel="4.5" sigma="0.8" tau="1.2"/>
    <vehicle id="occ_0012" type="vehicle.audi.tt_occ" depart="9.60" color="41,51,44">
        <route edges="-39.0.00 -0.0.00 -1.0.00 -2.0.00 -3.0.00"/>
    </vehicle>
    <vehicle id="occ_0013" type="vehicle.audi.a2_occ" depart="10.40" color="125,132,125">
        <route edges="-39.0.00 -0.0.00 -1.0.00 -2.0.00 -3.0.00"/>
    </vehicle>
    <vType id="vehicle.volkswagen.t2_base" length="5.00" minGap="2.50" speedFactor="normc(1.00,0.10,0.80,1.20)" vClass="passenger" width="2.00" height="1.80" accel="2.6" decel="4.5" sigma="0.5" tau="1.0"/>
    <vehicle id="base_0007" type="vehicle.volkswagen.t2_base" depart="10.50" color="35,25,17">
        <route edges="-21.0.00 -22.0.00 -52.0.00"/>
    </vehicle>
    <vType id="vehicle.tesla.model3_occ" length="4.50" minGap="1.50" speedFactor="normc(0.90,0.10,0.70,1.10)" vClass="passenger" width="1.80" height="1.50" accel="2.6" decel="4.5" sigma="0.8" tau="1.2"/>
    <vehicle id="occ_0014" type="vehicle.tesla.model3_occ" depart="11.20" color="227,18,17">
        <route edges="-39.0.00 -0.0.00 -1.0.00 -2.0.00 -3.0.00"/>
    </vehicle>
    <vehicle id="base_0008" type="vehicle.nissan.patrol_2021_base" depart="12.00" color="25,15,0">
        <route edges="-39.0.00 -0.0.00 -1.0.00 -2.0.00 -3.0.00"/>
    </vehicle>
    <vType id="vehicle.volkswagen.t2_occ" length="5.00" minGap="1.50" speedFactor="normc(0.90,0.10,0.70,1.10)" vClass="passenger" width="2.00" height="1.80" accel="2.6" decel="4.5" sigma="0.8" tau="1.2"/>
    <vehicle id="occ_0015" type="vehicle.volkswagen.t2_occ" depart="12.00" color="17,19,0">
        <route edges="-39.0.00 -0.0.00 -1.0.00 -2.0.00 -3.0.00"/>
    </vehicle>
    <vehicle id="occ_0016" type="vehicle.jeep.wrangler_rubicon_occ" depart="12.80" color="255,245,255">
        <route edges="-39.0.00 -0.0.00 -1.0.00 -2.0.00 -3.0.00"/>
    </vehicle>
    <vType id="vehicle.lincoln.mkz_2020_base" length="4.50" minGap="2.50" speedFactor="normc(1.00,0.10,0.80,1.20)" vClass="passenger" width="1.80" height="1.50" accel="2.6" decel="4.5" sigma="0.5" tau="1.0"/>
    <vehicle id="base_0009" type="vehicle.lincoln.mkz_2020_base" depart="13.50" color="31,0,0">
        <route edges="24.0.00 23.0.00"/>
    </vehicle>
    <vType id="vehicle.seat.leon_occ" length="4.00" minGap="1.50" speedFactor="normc(0.90,0.10,0.70,1.10)" vClass="passenger" width="1.80" height="1.50" accel="2.6" decel="4.5" sigma="0.8" tau="1.2"/>
    <vehicle id="occ_0017" type="vehicle.seat.leon_occ" depart="13.60" color="40,73,210">
        <route edges="-39.0.00 -0.0.00 -1.0.00 -2.0.00 -3.0.00"/>
    </vehicle>
    <vType id="vehicle.nissan.patrol_2021_occ" length="5.00" minGap="1.50" speedFactor="normc(0.90,0.10,0.70,1.10)" vClass="passenger" width="2.00" height="1.80" accel="2.6" decel="4.5" sigma="0.8" tau="1.2"/>
    <vehicle id="occ_0018" type="vehicle.nissan.patrol_2021_occ" depart="14.40" color="201,190,173">
        <route edges="-39.0.00 -0.0.00 -1.0.00 -2.0.00 -3.0.00"/>
    </vehicle>
    <vType id="vehicle.audi.a2_base" length="4.50" minGap="2.50" speedFactor="normc(1.00,0.10,0.80,1.20)" vClass="passenger" width="1.80" height="1.50" accel="2.6" decel="4.5" sigma="0.5" tau="1.0"/>
    <vehicle id="base_0010" type="vehicle.audi.a2_base" depart="15.00" color="30,35,42">
        <route edges="-6.0.00 -7.0.00 -8.0.00 -9.0.00"/>
    </vehicle>
    <vehicle id="occ_0019" type="vehicle.mini.cooper_s_occ" depart="15.20" color="119,147,142">
        <route edges="-39.0.00 -0.0.00 -1.0.00 -2.0.00 -3.0.00"/>
    </vehicle>
    <vehicle id="occ_0020" type="vehicle.audi.etron_occ" depart="16.00" color="255,234,233">
        <route edges="-39.0.00 -0.0.00 -1.0.00 -2.0.00 -3.0.00"/>
    </vehicle>
    <vType id="vehicle.seat.leon_base" length="4.00" minGap="2.50" speedFactor="normc(1.00,0.10,0.80,1.20)" vClass="passenger" width="1.80" height="1.50" accel="2.6" decel="4.5" sigma="0.5" tau="1.0"/>
    <vehicle id="base_0011" type="vehicle.seat.leon_base" depart="16.50" color="138,121,138">
        <route edges="24.0.00 23.0.00"/>
    </vehicle>
    <vehicle id="occ_0021" type="vehicle.lincoln.mkz_2020_occ" depart="16.80" color="255,243,238">
        <route edges="-39.0.00 -0.0.00 -1.0.00 -2.0.00 -3.0.00"/>
    </vehicle>
    <vType id="vehicle.mercedes.coupe_2020_occ" length="4.50" minGap="1.50" speedFactor="normc(0.90,0.10,0.70,1.10)" vClass="passenger" width="1.80" height="1.50" accel="2.6" decel="4.5" sigma="0.8" tau="1.2"/>
    <vehicle id="occ_0022" type="vehicle.mercedes.coupe_2020_occ" depart="17.60" color="white">
        <route edges="-39.0.00 -0.0.00 -1.0.00 -2.0.00 -3.0.00"/>
    </vehicle>
    <vType id="vehicle.mercedes.coupe_2020_base" length="4.50" minGap="2.50" speedFactor="normc(1.00,0.10,0.80,1.20)" vClass="passenger" width="1.80" height="1.50" accel="2.6" decel="4.5" sigma="0.5" tau="1.0"/>
    <vehicle id="base_0012" type="vehicle.mercedes.coupe_2020_base" depart="18.00" color="239,244,220">
        <route edges="-36.0.00 -38.0.00"/>
    </vehicle>
    <vehicle id="occ_0023" type="vehicle.audi.a2_occ" depart="18.40" color="148,20,0">
        <route edges="-39.0.00 -0.0.00 -1.0.00 -2.0.00 -3.0.00"/>
    </vehicle>
    <vehicle id="occ_0024" type="vehicle.tesla.model3_occ" depart="19.20" color="204,50,34">
        <route edges="-39.0.00 -0.0.00 -1.0.00 -2.0.00 -3.0.00"/>
    </vehicle>
    <vehicle id="base_0013" type="vehicle.nissan.patrol_base" depart="19.50" color="32,18,26">
        <route edges="-6.0.00 46.0.00 45.0.00 -9.0.00"/>
    </vehicle>
    <vehicle id="occ_0025" type="vehicle.ford.ambulance_occ" depart="20.00" color="224,30,13">
        <route edges="-39.0.00 -0.0.00 -1.0.00 -2.0.00 -3.0.00"/>
    </vehicle>
    <vehicle id="occ_0026" type="vehicle.nissan.patrol_occ" depart="20.80" color="255,191,0">
        <route edges="-39.0.00 -0.0.00 -1.0.00 -2.0.00 -3.0.00"/>
    </vehicle>
    <vehicle id="base_0014" type="vehicle.lincoln.mkz_2017_base" depart="21.00" color="64,34,42">
        <route edges="-36.0.00 -38.0.00"/>
    </vehicle>
    <vehicle id="occ_0027" type="vehicle.audi.a2_occ" depart="21.60" color="42,34,33">
        <route edges="-39.0.00 -0.0.00 -1.0.00 -2.0.00 -3.0.00"/>
    </vehicle>
    <vType id="vehicle.chevrolet.impala_occ" length="4.50" minGap="1.50" speedFactor="normc(0.90,0.10,0.70,1.10)" vClass="passenger" width="1.80" height="1.50" accel="2.6" decel="4.5" sigma="0.8" tau="1.2"/>
    <vehicle id="occ_0028" type="vehicle.chevrolet.impala_occ" depart="22.40" color="236,236,255">
        <route edges="-39.0.00 -0.0.00 -1.0.00 -2.0.00 -3.0.00"/>
    </vehicle>
    <vType id="vehicle.mercedes.coupe_base" length="4.50" minGap="2.50" speedFactor="normc(1.00,0.10,0.80,1.20)" vClass="passenger" width="1.80" height="1.50" accel="2.6" decel="4.5" sigma="0.5" tau="1.0"/>
    <vehicle id="base_0015" type="vehicle.mercedes.coupe_base" depart="22.50" color="123,138,142">
        <route edges="-21.0.00 -22.0.00 -52.0.00"/>
    </vehicle>
    <vehicle id="occ_0029" type="vehicle.jeep.wrangler_rubicon_occ" depart="23.20" color="61,34,57">
        <route edges="-39.0.00 -0.0.00 -1.0.00 -2.0.00 -3.0.00"/>
    </vehicle>
    <vehicle id="base_0016" type="vehicle.citroen.c3_base" depart="24.00" color="115,124,137">
        <route edges="24.0.00 23.0.00"/>
    </vehicle>
    <vehicle id="base_0017" type="vehicle.citroen.c3_base" depart="25.50" color="241,249,255">
        <route edges="20.0.00 48.0.00 -39.0.00 25.0.00"/>
    </vehicle>
    <vType id="vehicle.audi.etron_base" length="5.00" minGap="2.50" speedFactor="normc(1.00,0.10,0.80,1.20)" vClass="passenger" width="2.00" height="1.80" accel="2.6" decel="4.5" sigma="0.5" tau="1.0"/>
    <vehicle id="base_0018" type="vehicle.audi.etron_base" depart="27.00" color="white">
        <route edges="-39.0.00 -0.0.00 -1.0.00 -2.0.00 -3.0.00"/>
    </vehicle>
    <vehicle id="base_0019" type="vehicle.citroen.c3_base" depart="28.50" color="202,188,209">
        <route edges="-21.0.00 -22.0.00 -52.0.00"/>
    </vehicle>
    <vType id="vehicle.bmw.grandtourer_base" length="4.50" minGap="2.50" speedFactor="normc(1.00,0.10,0.80,1.20)" vClass="passenger" width="1.80" height="1.50" accel="2.6" decel="4.5" sigma="0.5" tau="1.0"/>
    <vehicle id="base_0020" type="vehicle.bmw.grandtourer_base" depart="30.00" color="199,173,199">
        <route edges="-21.0.00 -41.0.00 -51.0.00 -52.0.00"/>
    </vehicle>
    <vType id="vehicle.nissan.patrol_2021_hard" length="5.00" minGap="2.00" speedFactor="normc(1.00,0.00)" vClass="passenger" width="2.00" height="1.80" accel="2.6" decel="4.5" sigma="0.0" tau="0.8"/>
    <vehicle id="H01_00" type="vehicle.nissan.patrol_2021_hard" depart="30.00" departLane="best" departPos="10.00" departSpeed="0.00" color="white">
        <route edges="27.0.00 37.0.00 35.0.00"/>
    </vehicle>
    <vehicle id="H01_01" type="vehicle.nissan.patrol_2021_hard" depart="30.00" departLane="best" departPos="25.00" departSpeed="0.00" color="white">
        <route edges="27.0.00 37.0.00 35.0.00"/>
    </vehicle>
    <vehicle id="H01_02" type="vehicle.nissan.patrol_2021_hard" depart="30.00" departLane="best" departPos="40.00" departSpeed="0.00" color="white">
        <route edges="27.0.00 37.0.00 35.0.00"/>
    </vehicle>
    <vehicle id="H01_03" type="vehicle.nissan.patrol_2021_hard" depart="30.00" departLane="best" departPos="55.00" departSpeed="0.00" color="white">
        <route edges="27.0.00 37.0.00 35.0.00"/>
    </vehicle>
    <vehicle id="H01_04" type="vehicle.nissan.patrol_2021_hard" depart="30.00" departLane="best" departPos="70.00" departSpeed="0.00" color="white">
        <route edges="27.0.00 37.0.00 35.0.00"/>
    </vehicle>
    <vehicle id="base_0021" type="vehicle.bmw.grandtourer_base" depart="31.50" color="233,28,48">
        <route edges="-21.0.00 -22.0.00 -52.0.00"/>
    </vehicle>
    <vehicle id="base_0022" type="vehicle.mercedes.coupe_base" depart="33.00" color="229,13,46">
        <route edges="-21.0.00 -41.0.00 -51.0.00 -52.0.00"/>
    </vehicle>
    <vType id="vehicle.chevrolet.impala_base" length="4.50" minGap="2.50" speedFactor="normc(1.00,0.10,0.80,1.20)" vClass="passenger" width="1.80" height="1.50" accel="2.6" decel="4.5" sigma="0.5" tau="1.0"/>
    <vehicle id="base_0023" type="vehicle.chevrolet.impala_base" depart="34.50" color="253,231,232">
        <route edges="-21.0.00 -41.0.00 -51.0.00 -52.0.00"/>
    </vehicle>
    <vehicle id="base_0024" type="vehicle.jeep.wrangler_rubicon_base" depart="36.00" color="255,249,255">
        <route edges="-21.0.00 -41.0.00 -51.0.00 -52.0.00"/>
    </vehicle>
    <vehicle id="base_0025" type="vehicle.jeep.wrangler_rubicon_base" depart="37.50" color="20,19,0">
        <route edges="-36.0.00 -38.0.00"/>
    </vehicle>
    <vehicle id="base_0026" type="vehicle.citroen.c3_base" depart="39.00" color="142,225,248">
        <route edges="20.0.00 48.0.00 -39.0.00 25.0.00"/>
    </vehicle>
    <vehicle id="base_0027" type="vehicle.chevrolet.impala_base" depart="40.50" color="144,0,0">
        <route edges="-21.0.00 -41.0.00 -51.0.00 -52.0.00"/>
    </vehicle>
    <vehicle id="base_0028" type="vehicle.lincoln.mkz_2020_base" depart="42.00" color="190,190,201">
        <route edges="-36.0.00 -38.0.00"/>
    </vehicle>
    <vType id="vehicle.audi.tt_base" length="4.50" minGap="2.50" speedFactor="normc(1.00,0.10,0.80,1.20)" vClass="passenger" width="1.80" height="1.50" accel="2.6" decel="4.5" sigma="0.5" tau="1.0"/>
    <vehicle id="base_0029" type="vehicle.audi.tt_base" depart="43.50" color="15,29,0">
        <route edges="-6.0.00 -7.0.00 -8.0.00 -9.0.00"/>
    </vehicle>
    <vehicle id="base_0030" type="vehicle.lincoln.mkz_2020_base" depart="45.00" color="58,58,30">
        <route edges="20.0.00 48.0.00 -39.0.00 25.0.00"/>
    </vehicle>
    <vehicle id="base_0031" type="vehicle.mini.cooper_s_2021_base" depart="46.50" color="0,1,2">
        <route edges="24.0.00 23.0.00"/>
    </vehicle>
    <vehicle id="base_0032" type="vehicle.mini.cooper_s_base" depart="48.00" color="175,198,198">
        <route edges="-36.0.00 -38.0.00"/>
    </vehicle>
    <vehicle id="base_0033" type="vehicle.mercedes.coupe_base" depart="49.50" color="148,8,43">
        <route edges="-39.0.00 -0.0.00 -1.0.00 -2.0.00 -3.0.00"/>
    </vehicle>
    <vehicle id="base_0034" type="vehicle.lincoln.mkz_2020_base" depart="51.00" color="229,252,253">
        <route edges="20.0.00 48.0.00 -39.0.00 25.0.00"/>
    </vehicle>
    <vType id="vehicle.tesla.model3_base" length="4.50" minGap="2.50" speedFactor="normc(1.00,0.10,0.80,1.20)" vClass="passenger" width="1.80" height="1.50" accel="2.6" decel="4.5" sigma="0.5" tau="1.0"/>
    <vehicle id="base_0035" type="vehicle.tesla.model3_base" depart="52.50" color="33,15,7">
        <route edges="-39.0.00 -0.0.00 -1.0.00 -2.0.00 -3.0.00"/>
    </vehicle>
    <vehicle id="base_0036" type="vehicle.audi.etron_base" depart="54.00" color="45,57,51">
        <route edges="20.0.00 48.0.00 -39.0.00 25.0.00"/>
    </vehicle>
    <vType id="vehicle.bmw.grandtourer_hard" length="4.50" minGap="2.00" speedFactor="normc(1.00,0.00)" vClass="passenger" width="1.80" height="1.50" accel="2.6" decel="4.5" sigma="0.0" tau="0.8"/>
    <vehicle id="H02_00" type="vehicle.bmw.grandtourer_hard" depart="55.00" departLane="best" departPos="10.00" departSpeed="0.00" color="127,84,42">
        <route edges="27.0.00 37.0.00 35.0.00"/>
    </vehicle>
    <vehicle id="H02_01" type="vehicle.bmw.grandtourer_hard" depart="55.00" departLane="best" departPos="25.00" departSpeed="0.00" color="127,84,42">
        <route edges="27.0.00 37.0.00 35.0.00"/>
    </vehicle>
    <vehicle id="H02_02" type="vehicle.bmw.grandtourer_hard" depart="55.00" departLane="best" departPos="40.00" departSpeed="0.00" color="127,84,42">
        <route edges="27.0.00 37.0.00 35.0.00"/>
    </vehicle>
    <vehicle id="H02_03" type="vehicle.bmw.grandtourer_hard" depart="55.00" departLane="best" departPos="55.00" departSpeed="0.00" color="127,84,42">
        <route edges="27.0.00 37.0.00 35.0.00"/>
    </vehicle>
    <vehicle id="H02_04" type="vehicle.bmw.grandtourer_hard" depart="55.00" departLane="best" departPos="70.00" departSpeed="0.00" color="127,84,42">
        <route edges="27.0.00 37.0.00 35.0.00"/>
    </vehicle>
    <vehicle id="base_0037" type="vehicle.jeep.wrangler_rubicon_base" depart="55.50" color="57,39,51">
        <route edges="24.0.00 23.0.00"/>
    </vehicle>
    <vehicle id="base_0038" type="vehicle.lincoln.mkz_2017_base" depart="57.00" color="40,46,44">
        <route edges="24.0.00 23.0.00"/>
    </vehicle>
    <vehicle id="base_0039" type="vehicle.audi.a2_base" depart="58.50" color="252,228,251">
        <route edges="-39.0.00 -0.0.00 -1.0.00 -2.0.00 -3.0.00"/>
    </vehicle>
    <vehicle id="base_0040" type="vehicle.volkswagen.t2_base" depart="60.00" color="158,10,13">
        <route edges="-6.0.00 46.0.00 45.0.00 -9.0.00"/>
    </vehicle>
    <vehicle id="base_0041" type="vehicle.mercedes.coupe_base" depart="61.50" color="183,204,175">
        <route edges="-21.0.00 -22.0.00 -52.0.00"/>
    </vehicle>
    <vehicle id="base_0042" type="vehicle.audi.etron_base" depart="63.00" color="37,37,59">
        <route edges="-6.0.00 -7.0.00 -8.0.00 -9.0.00"/>
    </vehicle>
    <vehicle id="base_0043" type="vehicle.mini.cooper_s_2021_base" depart="64.50" color="119,0,0">
        <route edges="-21.0.00 -22.0.00 -52.0.00"/>
    </vehicle>
    <vType id="vehicle.dodge.charger_2020_base" length="4.50" minGap="2.50" speedFactor="normc(1.00,0.10,0.80,1.20)" vClass="passenger" width="1.80" height="1.50" accel="2.6" decel="4.5" sigma="0.5" tau="1.0"/>
    <vehicle id="base_0044" type="vehicle.dodge.charger_2020_base" depart="66.00" color="24,26,0">
        <route edges="-39.0.00 -0.0.00 -1.0.00 -2.0.00 -3.0.00"/>
    </vehicle>
    <vehicle id="base_0045" type="vehicle.bmw.grandtourer_base" depart="67.50" color="205,190,186">
        <route edges="-6.0.00 46.0.00 45.0.00 -9.0.00"/>
    </vehicle>
    <vehicle id="base_0046" type="vehicle.jeep.wrangler_rubicon_base" depart="69.00" color="156,0,0">
        <route edges="24.0.00 23.0.00"/>
    </vehicle>
    <vehicle id="base_0047" type="vehicle.bmw.grandtourer_base" depart="70.50" color="223,255,235">
        <route edges="24.0.00 23.0.00"/>
    </vehicle>
    <vehicle id="base_0048" type="vehicle.bmw.grandtourer_base" depart="72.00" color="123,102,37">
        <route edges="-21.0.00 -41.0.00 -51.0.00 -52.0.00"/>
    </vehicle>
    <vehicle id="base_0049" type="vehicle.dodge.charger_2020_base" depart="73.50" color="200,45,29">
        <route edges="-6.0.00 46.0.00 45.0.00 -9.0.00"/>
    </vehicle>
    <vehicle id="base_0050" type="vehicle.seat.leon_base" depart="75.00" color="38,51,238">
        <route edges="-6.0.00 -7.0.00 -8.0.00 -9.0.00"/>
    </vehicle>
    <vehicle id="base_0051" type="vehicle.audi.a2_base" depart="76.50" color="black">
        <route edges="-39.0.00 -0.0.00 -1.0.00 -2.0.00 -3.0.00"/>
    </vehicle>
    <vehicle id="base_0052" type="vehicle.nissan.patrol_2021_base" depart="78.00" color="white">
        <route edges="-6.0.00 -7.0.00 -8.0.00 -9.0.00"/>
    </vehicle>
    <vehicle id="base_0053" type="vehicle.audi.etron_base" depart="79.50" color="206,190,199">
        <route edges="24.0.00 23.0.00"/>
    </vehicle>
    <vType id="vehicle.jeep.wrangler_rubicon_hard" length="5.00" minGap="2.00" speedFactor="normc(1.00,0.00)" vClass="passenger" width="2.00" height="1.80" accel="2.6" decel="4.5" sigma="0.0" tau="0.8"/>
    <vehicle id="H03_00" type="vehicle.jeep.wrangler_rubicon_hard" depart="80.00" departLane="best" departPos="10.00" departSpeed="0.00" color="255,232,202">
        <route edges="27.0.00 37.0.00 35.0.00"/>
    </vehicle>
    <vehicle id="H03_01" type="vehicle.jeep.wrangler_rubicon_hard" depart="80.00" departLane="best" departPos="25.00" departSpeed="0.00" color="255,232,202">
        <route edges="27.0.00 37.0.00 35.0.00"/>
    </vehicle>
    <vehicle id="H03_02" type="vehicle.jeep.wrangler_rubicon_hard" depart="80.00" departLane="best" departPos="40.00" departSpeed="0.00" color="255,232,202">
        <route edges="27.0.00 37.0.00 35.0.00"/>
    </vehicle>
    <vehicle id="H03_03" type="vehicle.jeep.wrangler_rubicon_hard" depart="80.00" departLane="best" departPos="55.00" departSpeed="0.00" color="255,232,202">
        <route edges="27.0.00 37.0.00 35.0.00"/>
    </vehicle>
    <vehicle id="H03_04" type="vehicle.jeep.wrangler_rubicon_hard" depart="80.00" departLane="best" departPos="70.00" departSpeed="0.00" color="255,232,202">
        <route edges="27.0.00 37.0.00 35.0.00"/>
    </vehicle>
    <vehicle id="base_0054" type="vehicle.dodge.charger_2020_base" depart="81.00" color="255,200,0">
        <route edges="-6.0.00 -7.0.00 -8.0.00 -9.0.00"/>
    </vehicle>
    <vehicle id="base_0055" type="vehicle.audi.tt_base" depart="82.50" color="2,3,11">
        <route edges="-6.0.00 46.0.00 45.0.00 -9.0.00"/>
    </vehicle>
    <vType id="vehicle.ford.ambulance_base" length="4.50" minGap="2.50" speedFactor="normc(1.00,0.10,0.80,1.20)" vClass="passenger" width="1.80" height="1.50" accel="2.6" decel="4.5" sigma="0.5" tau="1.0"/>
    <vehicle id="base_0056" type="vehicle.ford.ambulance_base" depart="84.00" color="243,255,255">
        <route edges="20.0.00 48.0.00 -39.0.00 25.0.00"/>
    </vehicle>
    <vehicle id="base_0057" type="vehicle.jeep.wrangler_rubicon_base" depart="85.50" color="62,35,33">
        <route edges="24.0.00 23.0.00"/>
    </vehicle>
    <vehicle id="base_0058" type="vehicle.lincoln.mkz_2020_base" depart="87.00" color="238,248,255">
        <route edges="-36.0.00 -38.0.00"/>
    </vehicle>
    <vehicle id="base_0059" type="vehicle.dodge.charger_2020_base" depart="88.50" color="white">
        <route edges="-39.0.00 -0.0.00 -1.0.00 -2.0.00 -3.0.00"/>
    </vehicle>
    <vehicle id="base_0060" type="vehicle.chevrolet.impala_base" depart="90.00" color="118,132,127">
        <route edges="-39.0.00 -0.0.00 -1.0.00 -2.0.00 -3.0.00"/>
    </vehicle>
    <vType id="vehicle.volkswagen.t2_2021_base" length="5.00" minGap="2.50" speedFactor="normc(1.00,0.10,0.80,1.20)" vClass="passenger" width="2.00" height="1.80" accel="2.6" decel="4.5" sigma="0.5" tau="1.0"/>
    <vehicle id="base_0061" type="vehicle.volkswagen.t2_2021_base" depart="91.50" color="39,58,33">
        <route edges="-6.0.00 -7.0.00 -8.0.00 -9.0.00"/>
    </vehicle>
    <vehicle id="base_0062" type="vehicle.ford.ambulance_base" depart="93.00" color="248,246,253">
        <route edges="-6.0.00 -7.0.00 -8.0.00 -9.0.00"/>
    </vehicle>
    <vehicle id="base_0063" type="vehicle.audi.a2_base" depart="94.50" color="237,237,238">
        <route edges="20.0.00 48.0.00 -39.0.00 25.0.00"/>
    </vehicle>
    <vehicle id="base_0064" type="vehicle.jeep.wrangler_rubicon_base" depart="96.00" color="147,0,27">
        <route edges="-21.0.00 -22.0.00 -52.0.00"/>
    </vehicle>
    <vehicle id="base_0065" type="vehicle.volkswagen.t2_base" depart="97.50" color="248,255,235">
        <route edges="24.0.00 23.0.00"/>
    </vehicle>
    <vehicle id="base_0066" type="vehicle.nissan.patrol_2021_base" depart="99.00" color="119,114,139">
        <route edges="-39.0.00 -0.0.00 -1.0.00 -2.0.00 -3.0.00"/>
    </vehicle>